Ident  = #Delft3D-FLOW 3.59.01.57433#
Commnt =                  
Filcco = #mar05.grd#
Filgrd = #mar05.enc#
MNKmax = 663 290 1
Thick  =  1.0000000e+002
Commnt =                  
Fildep = #mar05.dep#
Commnt =                  
Commnt =                 no. dry points: 0
Commnt =                 no. thin dams: 0
Commnt =                  
Itdate = #2005-03-01#
Tunit  = #M#
mar05art =  0.0000000e+000
mar05op  =  1.3248000e+005
Dt     = 1
Tzone  = 0
Commnt =                  
Sub1   = #    #
Sub2   = #  W#
Commnt =                  
Wnsvwp = #N#
Wndint = #Y#
Commnt =                  
Zeta0  =  0.0000000e+000
Commnt =                  
Commnt =                 no. open boundaries: 48
Filbnd = #mar05.bnd#
Filana = #mar05.bca#
Commnt =                  
Ag     =  9.8100000e+000
Rhow   =  1.0000000e+003
Tempw  =  1.5000000e+001
Salw   =  3.1000000e+001
Rouwav = #FR84#
Wstres =  1.0000000e-003  0.0000000e+000  3.0000000e-003  2.5000000e+001  3.0000000e-003  2.5000000e+001
Rhoa   =  1.1500000e+000
Betac  =  5.0000000e-001
Equili = #N#
Ktemp  = 0
Fclou  =  0.0000000e+000
Sarea  =  0.0000000e+000
Temint = #Y#
Commnt =                  
Roumet = #M#
Ccofu  =  2.7500000e-002
Ccofv  =  2.7500000e-002
Xlo    =  0.0000000e+000
Vicouv =  1.0000000e+000
Dicouv =  1.0000000e+000
Htur2d = #N#
Irov   = 0
Commnt =                  
Iter   =      2
Dryflp = #YES#
Dpsopt = #DP#
Dpuopt = #MIN#
Dryflc =  1.0000000e-001
Dco    = -9.9900000e+002
Tlfsmo =  6.0000000e+001
ThetQH =  0.0000000e+000
Forfuv = #N#
Forfww = #N#
Sigcor = #N#
Trasol = #Cyclic-method#
Momsol = #Cyclic#
Commnt =                  
Commnt =                 no. discharges: 0
Commnt =                 no. observation points: 8
Filsta = #mar05.obs#
Commnt =                 no. drogues: 0
Commnt =                  
Commnt =                  
Commnt =                 no. cross sections: 0
Commnt =                  
SMhydr = #YYYYY#     
SMderv = #YYYYYY#    
SMproc = #YYYYYYYYYY#
PMhydr = #YYYYYY#    
PMderv = #YYY#       
PMproc = #YYYYYYYYYY#
SHhydr = #YYYY#      
SHderv = #YYYYY#     
SHproc = #YYYYYYYYYY#
SHflux = #YYYY#      
PHhydr = #YYYYYY#    
PHderv = #YYY#       
PHproc = #YYYYYYYYYY#
PHflux = #YYYY#      
Prhis = 0.0000000e+00   0.0000000e+00   0.0000000e+00
Flmap = 0.0000000e+00   4.3200000e+04   4.3200000e+04
Flhis = 0.0000000e+00   3.0000000e+01   4.3200000e+04
Flpp  = 0.0000000e+00   6.0000000e+01   4.3200000e+04
Flrst  = 0
Commnt =                  
Online = #N#
WaveOL = #Y#
Commnt =                  
