Ident = #Delft3D-FLOW  .03.02 3.39.26#
Runtxt= #                              #
Filcco= #may06.grd#
Fmtcco= #FR#
Grdang= 0.0000000e+00
Filgrd= #may06.enc#
Fmtgrd= #FR#
MNKmax= 663 290   1
Thick = 1.0000000e+02
Fildep= #may06.dep#
Fmtdep= #FR#
Itdate= #2006-05-01#
Tunit = #M#
may06art= 0.0000000e+00
may06op = 4.4640000e+04
Dt    = 1.0000000e+00
Tzone = 0
Sub1  = #    #
Sub2  = #  W#
Wnsvwp= #N#
Wndint= #Y#
Zeta0 = 0.0000000e+00
U0    = [.]
V0    = [.]
Filbnd= #may06.bnd#
Fmtbnd= #FR#
Filana= #may06.bca#
Fmtana= #FR#
Ag    = 9.8100000e+00
Rhow  = 1.0000000e+03
Alph0 = [.]
Tempw = 1.5000000e+01
Salw  = 3.1000000e+01
Rouwav= #FR84#
Wstres= 1.0000000e-03   0.0000000e+00   3.0000000e-03   2.5000000e+01   3.0000000e-03   2.5000000e+01
Rhoa  = 1.1500000e+00
Betac = 5.0000000e-01
Equili= #N#
Tkemod= #            #
Ktemp = 0
Fclou = 0.0000000e+00
Sarea = 0.0000000e+00
Temint= #Y#
Roumet= #M#
Ccofu = 2.7500000e-02
Ccofv = 2.7500000e-02
Xlo   = 0.0000000e+00
Vicouv= 1.0000000e+00
Dicouv= 1.0000000e+00
Htur2d= #N#
Irov  = 0
Iter  = 2
Dryflp= #YES#
Dpsopt= #DP#
Dpuopt= #MIN#
Dryflc= 1.0000000e-01
Dco   = -9.9900000e+02
Tlfsmo= 6.0000000e+01
ThetQH= 0.0000000e+00
Forfuv= #N#
Forfww= #N#
Sigcor= #N#
Trasol= #Cyclic-method#
Momsol= #Cyclic#
Filsta= #may06.obs#
Fmmay06a= #FR#
SMhydr= #YYYYY#
SMderv= #YYYYYY#
SMproc= #YYYYYYYYYY#
PMhydr= #YYYYYY#
PMderv= #YYY#
PMproc= #YYYYYYYYYY#
SHhydr= #YYYY#
SHderv= #YYYYY#
SHproc= #YYYYYYYYYY#
SHflux= #YYYY#
PHhydr= #YYYYYY#
PHderv= #YYY#
PHproc= #YYYYYYYYYY#
PHflux= #YYYY#
Online= #N#
Waqmod= #N#
WaveOL= #Y#
Prhis = 0.0000000e+00   0.0000000e+00   0.0000000e+00
Flmap = 0.0000000e+00   4.3200000e+04   4.3200000e+04
Flhis = 0.0000000e+00   3.0000000e+01   4.3200000e+04
Flpp  = 0.0000000e+00   6.0000000e+01   4.3200000e+04
Flrst = 0.0000000e+00
